[TITLE]

[OPTIONS]
FLOW_UNITS           CMS
INFILTRATION         CURVE_NUMBER
FLOW_ROUTING         DYNWAVE
START_DATE           02/04/2013
START_TIME           00:00:00
REPORT_START_DATE    02/04/2013
REPORT_START_TIME    00:00:00
END_DATE             02/05/2013
END_TIME             00:00:00
SWEEP_START          01/01
SWEEP_END            12/31
DRY_DAYS             0
REPORT_STEP          00:05:00
WET_STEP             00:15:00
DRY_STEP             00:15:00
ROUTING_STEP         0:00:30 
ALLOW_PONDING        NO
INERTIAL_DAMPING     PARTIAL
VARIABLE_STEP        0.75
LENGTHENING_STEP     0
MIN_SURFAREA         0
NORMAL_FLOW_LIMITED  BOTH
SKIP_STEADY_STATE    NO
FORCE_MAIN_EQUATION  H-W
LINK_OFFSETS         DEPTH
MIN_SLOPE            0

[EVAPORATION]
;;Type       Parameters
;;---------- ----------
CONSTANT     0.0
DRY_ONLY     NO

[RAINGAGES]
;;               Rain      Time   Snow   Data      
;;Name           Type      Intrvl Catch  Source    
;;-------------- --------- ------ ------ ----------
300_main_street  CUMULATIVE 0:01   1.0    TIMESERIES 300_main_st_7_11_2012

[SUBCATCHMENTS]
;;                                                 Total    Pcnt.             Pcnt.    Curb     Snow    
;;Name           Raingage         Outlet           Area     Imperv   Width    Slope    Length   Pack    
;;-------------- ---------------- ---------------- -------- -------- -------- -------- -------- --------
ws-1             300_main_street  1                0.45     20.56290054 47.33753481 8.152170181 0                        
ws-2             300_main_street  2                0.25     19.64690018 70.05753276 9.500300407 0                        
ws-3             300_main_street  3                9.68     45.66759873 126.1358292 3.848929882 0                        
ws-7             300_main_street  7                0.24     33.36059953 49.11671914 4.340370178 0                        
ws-8             300_main_street  8                0.91     45.10020065 41.48427072 9.031499863 0                        
ws-9             300_main_street  9                0.29     45.1841011 59.90807937 11.69110012 0                        
ws-10            300_main_street  10               0.28     76.62149813 41.83800813 15.22560024 0                        
ws-11            300_main_street  11               1.49     74.29199983 44.89466681 7.861609936 0                        
ws-12            300_main_street  12               0.36     68.7838974 52.05618439 5.263430119 0                        
ws-13            300_main_street  13               3.55     68.29669953 52.37254879 10.65820026 0                        
ws-14            300_main_street  14               0.21     67.47579955 51.47086912 5.047709942 0                        
ws-15            300_main_street  15               0.21     60.54980088 46.28723076 4.542170048 0                        
ws-16            300_main_street  16               0.3      70.35800173 30.85317029 14.77390003 0                        
ws-17            300_main_street  17               70.08    53.54800035 257.0751695 2.609719992 0                        
ws-18            300_main_street  18               0.17     72.76719665 35.77733025 21.5182991 0                        
ws-19            300_main_street  19               3.96     50.45980073 89.96324681 3.263870001 0                        
ws-20            300_main_street  20               13.84    51.480999 163.7190165 3.490649939 0                        
ws-21            300_main_street  21               0.6      32.3017006 41.50079454 4.972660065 0                        
ws-22            300_main_street  22               20.57    58.12969973 168.1220477 2.625370026 0                        
ws-23            300_main_street  23               0.72     40.57630158 26.14943253 3.370300055 0                        
ws-24            300_main_street  24               0.17     48.34949875 33.86982874 4.276309967 0                        
ws-25            300_main_street  25               3.29     52.13750075 57.47053483 4.260379791 0                        
ws-26            300_main_street  26               10.42    50.25709915 123.4738497 3.736730099 0                        
ws-27            300_main_street  27               0.47     33.875   50.43844211 3.540590048 0                        
ws-28            300_main_street  28               1        38.35749818 68.53940096 3.508729935 0                        
ws-29            300_main_street  29               1.35     21.03980064 65.41138085 5.919229984 0                        
ws-30            300_main_street  30               1.52     34.15990068 68.3101005 2.509759903 0                        
ws-31            300_main_street  31               0.35     14.67529964 33.41353383 2.76560998 0                        
ws-32            300_main_street  32               9.96     23.59329988 210.5098299 3.392750025 0                        
ws-35            300_main_street  35               0.89     3.614919903 75.04086509 2.535739899 0                        
ws-37            300_main_street  37               0.96     60.04190065 45.31102479 2.258160114 0                        
ws-38            300_main_street  38               0.99     51.73690035 89.48139028 1.737490058 0                        
ws-40            300_main_street  40               0.19     73.99539948 35.0900617 1.741250038 0                        
ws-41            300_main_street  41               3.01     81.1187973 71.65650586 2.862360001 0                        
ws-42            300_main_street  42               2.94     69.53900145 94.26075679 3.638689995 0                        
ws-43            300_main_street  43               0.75     54.88700105 59.72038543 4.148519993 0                        
ws-45            300_main_street  45               15.2     50.10639955 156.0417242 4.75661993 0                        
ws-46            300_main_street  46               17.26    75.1235962 92.03539494 3.586060047 0                        
ws-47            300_main_street  47               0.66     59.0768013 41.58763655 7.014130116 0                        
ws-48            300_main_street  48               0.27     70.96299745 34.18479937 6.371960163 0                        
ws-49            300_main_street  49               1.11     60.6814003 62.68166694 3.275650024 0                        
ws-50            300_main_street  50               0.63     68.4992981 32.15387253 4.595260143 0                        
ws-52            300_main_street  52               1.67     60.8634987 51.21374981 5.439819813 0                        
ws-53            300_main_street  53               7.8      54.67160035 99.72075506 4.494070053 0                        
ws-54            300_main_street  54               0.41     64.0837021 36.96822263 2.278150082 0                        
ws-55            300_main_street  55               11.6     48.94509888 137.5405896 5.446109772 0                        
ws-57            300_main_street  57               0.38     7.685709955 31.26565376 2.287559986 0                        
ws-58            300_main_street  58               2.56     31.40410043 72.34008765 3.068419933 0                        
ws-60            300_main_street  60               0.46     52.04130175 48.1843425 3.277889967 0                        
ws-61            300_main_street  61               0.78     54.39419938 43.9231954 5.364850044 0                        
ws-62            300_main_street  62               0.32     50.80619813 43.97693043 5.298950195 0                        
ws-63            300_main_street  63               3.65     62.24980165 76.39259212 6.406990051 0                        
ws-64            300_main_street  64               9.61     52.58620073 116.703611 4.800819874 0                        
ws-65            300_main_street  65               1.1      55.62450028 55.66404532 5.488949776 0                        
ws-66            300_main_street  66               15.06    53.15069963 184.3417502 6.144680023 0                        
ws-69            300_main_street  69               11.2     48.1473999 103.5629837 5.382410049 0                        
ws-70            300_main_street  70               1.47     54.50270083 41.79495623 5.028759956 0                        
ws-71            300_main_street  71               50.13    52.53020095 304.0142183 3.592259884 0                        
ws-73            300_main_street  73               0.7      61.27259828 45.99042036 4.124810219 0                        
ws-74            300_main_street  74               2.71     11.64630032 59.25299463 1.945129991 0                        
ws-75            300_main_street  75               0.67     8.596229555 52.22149392 1.940490007 0                        
ws-77            300_main_street  77               0.23     7.45593977 34.38382111 4.070960045 0                        
ws-78            300_main_street  78               2.71     33.96009828 55.55481034 5.255549908 0                        
ws-79            300_main_street  79               0.94     31.45420075 58.46386163 2.540960073 0                        
ws-80            300_main_street  80               0.06     38.6875  20.47129791 4.264110088 0                        
ws-81            300_main_street  81               1.42     37.39500045 26.22359822 5.518889904 0                        
ws-83            300_main_street  83               1.45     46.12129975 28.55876693 3.546299934 0                        
ws-84            300_main_street  84               133.71   36.10039903 554.7193236 3.558779955 0                        
ws-87            300_main_street  87               0.2      97.43240355 16.94706143 2.131249905 0                        
ws-88            300_main_street  88               4.15     68.93489838 73.46750561 4.950089931 0                        
ws-89            300_main_street  89               0.2      97.63059998 28.09600498 2.395319939 0                        
ws-90            300_main_street  90               0.03     97.52780153 10.13073413 1.156679988 0                        
ws-91            300_main_street  91               0.04     98.3042984 12.81180801 1.279680014 0                        
ws-92            300_main_street  92               0.12     92.01560213 18.8545756 2.68234992 0                        
ws-93            300_main_street  93               0.06     90.11289978 16.06755798 2.927659988 0                        
ws-94            300_main_street  94               1.56     90.4673996 38.0798931 3.487129927 0                        
ws-95            300_main_street  95               0.25     90.2193985 24.55841639 4.16546011 0                        
ws-96            300_main_street  96               0.07     96.6053009 21.35477533 5.01996994 0                        
ws-97            300_main_street  97               0.79     85.05079653 50.74016461 4.516940117 0                        
ws-98            300_main_street  98               0.76     79.26329805 54.12474819 6.230430126 0                        
ws-101           300_main_street  101              0.54     69.07260133 35.80132988 4.486269951 0                        
ws-102           300_main_street  102              0.48     70.86250305 44.03206655 3.915159941 0                        
ws-103           300_main_street  103              0.07     62.38959885 6.973547636 3.124340057 0                        
ws-105           300_main_street  105              0.33     71.2397995 43.58933171 1.905689955 0                        
ws-106           300_main_street  106              0.22     92.5959015 28.44188031 2.16685009 0                        
ws-107           300_main_street  107              0.25     89.90879823 37.46169067 2.492350101 0                        
ws-108           300_main_street  108              3.59     76.06659698 68.5443358 4.188439846 0                        
ws-112           300_main_street  112              0.85     62.78039933 47.69791442 6.076950073 0                        
ws-114           300_main_street  114              0.05     47.5660019 15.69186189 5.38736  0                        
ws-115           300_main_street  115              0.06     63.32310105 12.95843107 5.38736  0                        
ws-116           300_main_street  116              22.94    60.77389908 205.9824111 4.697770119 0                        
ws-118           300_main_street  118              0.04     46.0929985 12.2532558 6.517809868 0                        
ws-119           300_main_street  119              0.76     75.31790163 29.60821656 6.13312006 0                        
ws-120           300_main_street  120              0.2      63.87720108 29.38541428 5.098259926 0                        
ws-121           300_main_street  121              0.26     70.4096985 36.21425336 8.467530251 0                        
ws-122           300_main_street  122              1.06     72.31690215 40.64178636 7.067520142 0                        
ws-123           300_main_street  123              29.5     72.74700165 265.5927262 3.915590048 0                        
ws-124           300_main_street  124              0.75     44.07899858 55.02888174 4.681240082 0                        
ws-127           300_main_street  127              0.12     15.53439999 25.78502835 2.096179962 0                        
ws-128           300_main_street  128              68.3     78.51139833 266.0742296 2.597700119 0                        
ws-130           300_main_street  130              0.1      38.13270188 20.16844784 3.62721  0                        
ws-131           300_main_street  131              0.02     54       12.88026047 3.62721  0                        
ws-132           300_main_street  132              19.22    63.20429995 144.7016562 4.656720161 0                        
ws-136           300_main_street  136              7.85     38.83440018 107.9362796 4.025710106 0                        
ws-137           300_main_street  137              0.23     36.66540145 38.839873 3.429689884 0                        
ws-138           300_main_street  138              0.82     14.39690018 54.85561034 4.060309887 0                        
ws-139           300_main_street  139              0.28     13.44629955 62.00473213 5.593200207 0                        
ws-141           300_main_street  141              0.16     11.74250031 33.84860364 3.693079948 0                        
ws-142           300_main_street  142              0.15     13.66860008 36.3475376 6.768740177 0                        
ws-143           300_main_street  143              0.69     16.98959923 49.66317822 6.129350185 0                        
ws-144           300_main_street  144              1.89     52.95729828 33.82712125 4.630710125 0                        
ws-145           300_main_street  145              0.1      62.9544983 22.03637386 6.670129776 0                        
ws-146           300_main_street  146              0.26     30.02129935 34.46568845 3.880100012 0                        
ws-148           300_main_street  148              81.43    50.36780168 403.2770073 4.077040195 0                        
ws-149           300_main_street  149              0.03     2.685709955 7.326006434 1.377900004 0                        
ws-150           300_main_street  150              44.53    41.20159913 220.4891819 3.173480034 0                        
ws-154           300_main_street  154              0.64     40.95330048 49.59702655 2.218719959 0                        
ws-155           300_main_street  155              0.16     31.55809975 27.98333963 1.682690024 0                        
ws-156           300_main_street  156              0.52     47.210701 34.04262662 3.277209997 0                        
ws-157           300_main_street  157              1.57     39.2024994 55.44349973 2.643690109 0                        
ws-159           300_main_street  159              74.37    40.42050173 371.1704478 4.171370029 0                        
ws-161           300_main_street  161              195.17   45.46160125 434.3577522 2.846029997 0                        
ws-162           300_main_street  162              0.25     8.34043026 21.85983054 1.507910013 0                        
ws-163           300_main_street  163              0.4      17.94820023 28.52769853 4.136129856 0                        
ws-165           300_main_street  165              2.2      63.88240053 75.57752403 5.008100033 0                        
ws-166           300_main_street  166              0.96     90.08999635 51.04699434 3.688499928 0                        
ws-167           300_main_street  167              0.12     77.22299958 27.19072563 5.505690098 0                        
ws-168           300_main_street  168              1.74     71.28359985 49.71413274 2.803560019 0                        
ws-169           300_main_street  169              0.15     81.24559785 22.4692812 4.784649849 0                        
ws-170           300_main_street  170              0.59     71.33029938 32.73245146 3.859989882 0                        
ws-171           300_main_street  171              11.46    68.4701996 149.2827672 2.775130033 0                        
ws-172           300_main_street  172              1.54     50.65790175 54.70542426 2.821049929 0                        
ws-173           300_main_street  173              22.03    64.71179963 165.3506076 2.643909931 0                        
ws-174           300_main_street  174              0.09     79.01010133 14.50564154 2.64391  0                        

[SUBAREAS]
;;Subcatchment   N-Imperv   N-Perv     S-Imperv   S-Perv     PctZero    RouteTo    PctRouted 
;;-------------- ---------- ---------- ---------- ---------- ---------- ---------- ----------
ws-1             0.013      0.1        0.05       0.05       25         OUTLET    
ws-2             0.013      0.1        0.05       0.05       25         OUTLET    
ws-3             0.013      0.1        0.05       0.05       25         OUTLET    
ws-7             0.013      0.1        0.05       0.05       25         OUTLET    
ws-8             0.013      0.1        0.05       0.05       25         OUTLET    
ws-9             0.013      0.1        0.05       0.05       25         OUTLET    
ws-10            0.013      0.1        0.05       0.05       25         OUTLET    
ws-11            0.013      0.1        0.05       0.05       25         OUTLET    
ws-12            0.013      0.1        0.05       0.05       25         OUTLET    
ws-13            0.013      0.1        0.05       0.05       25         OUTLET    
ws-14            0.013      0.1        0.05       0.05       25         OUTLET    
ws-15            0.013      0.1        0.05       0.05       25         OUTLET    
ws-16            0.013      0.1        0.05       0.05       25         OUTLET    
ws-17            0.013      0.1        0.05       0.05       25         OUTLET    
ws-18            0.013      0.1        0.05       0.05       25         OUTLET    
ws-19            0.013      0.1        0.05       0.05       25         OUTLET    
ws-20            0.013      0.1        0.05       0.05       25         OUTLET    
ws-21            0.013      0.1        0.05       0.05       25         OUTLET    
ws-22            0.013      0.1        0.05       0.05       25         OUTLET    
ws-23            0.013      0.1        0.05       0.05       25         OUTLET    
ws-24            0.013      0.1        0.05       0.05       25         OUTLET    
ws-25            0.013      0.1        0.05       0.05       25         OUTLET    
ws-26            0.013      0.1        0.05       0.05       25         OUTLET    
ws-27            0.013      0.1        0.05       0.05       25         OUTLET    
ws-28            0.013      0.1        0.05       0.05       25         OUTLET    
ws-29            0.013      0.1        0.05       0.05       25         OUTLET    
ws-30            0.013      0.1        0.05       0.05       25         OUTLET    
ws-31            0.013      0.1        0.05       0.05       25         OUTLET    
ws-32            0.013      0.1        0.05       0.05       25         OUTLET    
ws-35            0.013      0.1        0.05       0.05       25         OUTLET    
ws-37            0.013      0.1        0.05       0.05       25         OUTLET    
ws-38            0.013      0.1        0.05       0.05       25         OUTLET    
ws-40            0.013      0.1        0.05       0.05       25         OUTLET    
ws-41            0.013      0.1        0.05       0.05       25         OUTLET    
ws-42            0.013      0.1        0.05       0.05       25         OUTLET    
ws-43            0.013      0.1        0.05       0.05       25         OUTLET    
ws-45            0.013      0.1        0.05       0.05       25         OUTLET    
ws-46            0.013      0.1        0.05       0.05       25         OUTLET    
ws-47            0.013      0.1        0.05       0.05       25         OUTLET    
ws-48            0.013      0.1        0.05       0.05       25         OUTLET    
ws-49            0.013      0.1        0.05       0.05       25         OUTLET    
ws-50            0.013      0.1        0.05       0.05       25         OUTLET    
ws-52            0.013      0.1        0.05       0.05       25         OUTLET    
ws-53            0.013      0.1        0.05       0.05       25         OUTLET    
ws-54            0.013      0.1        0.05       0.05       25         OUTLET    
ws-55            0.013      0.1        0.05       0.05       25         OUTLET    
ws-57            0.013      0.1        0.05       0.05       25         OUTLET    
ws-58            0.013      0.1        0.05       0.05       25         OUTLET    
ws-60            0.013      0.1        0.05       0.05       25         OUTLET    
ws-61            0.013      0.1        0.05       0.05       25         OUTLET    
ws-62            0.013      0.1        0.05       0.05       25         OUTLET    
ws-63            0.013      0.1        0.05       0.05       25         OUTLET    
ws-64            0.013      0.1        0.05       0.05       25         OUTLET    
ws-65            0.013      0.1        0.05       0.05       25         OUTLET    
ws-66            0.013      0.1        0.05       0.05       25         OUTLET    
ws-69            0.013      0.1        0.05       0.05       25         OUTLET    
ws-70            0.013      0.1        0.05       0.05       25         OUTLET    
ws-71            0.013      0.1        0.05       0.05       25         OUTLET    
ws-73            0.013      0.1        0.05       0.05       25         OUTLET    
ws-74            0.013      0.1        0.05       0.05       25         OUTLET    
ws-75            0.013      0.1        0.05       0.05       25         OUTLET    
ws-77            0.013      0.1        0.05       0.05       25         OUTLET    
ws-78            0.013      0.1        0.05       0.05       25         OUTLET    
ws-79            0.013      0.1        0.05       0.05       25         OUTLET    
ws-80            0.013      0.1        0.05       0.05       25         OUTLET    
ws-81            0.013      0.1        0.05       0.05       25         OUTLET    
ws-83            0.013      0.1        0.05       0.05       25         OUTLET    
ws-84            0.013      0.1        0.05       0.05       25         OUTLET    
ws-87            0.013      0.1        0.05       0.05       25         OUTLET    
ws-88            0.013      0.1        0.05       0.05       25         OUTLET    
ws-89            0.013      0.1        0.05       0.05       25         OUTLET    
ws-90            0.013      0.1        0.05       0.05       25         OUTLET    
ws-91            0.013      0.1        0.05       0.05       25         OUTLET    
ws-92            0.013      0.1        0.05       0.05       25         OUTLET    
ws-93            0.013      0.1        0.05       0.05       25         OUTLET    
ws-94            0.013      0.1        0.05       0.05       25         OUTLET    
ws-95            0.013      0.1        0.05       0.05       25         OUTLET    
ws-96            0.013      0.1        0.05       0.05       25         OUTLET    
ws-97            0.013      0.1        0.05       0.05       25         OUTLET    
ws-98            0.013      0.1        0.05       0.05       25         OUTLET    
ws-101           0.013      0.1        0.05       0.05       25         OUTLET    
ws-102           0.013      0.1        0.05       0.05       25         OUTLET    
ws-103           0.013      0.1        0.05       0.05       25         OUTLET    
ws-105           0.013      0.1        0.05       0.05       25         OUTLET    
ws-106           0.013      0.1        0.05       0.05       25         OUTLET    
ws-107           0.013      0.1        0.05       0.05       25         OUTLET    
ws-108           0.013      0.1        0.05       0.05       25         OUTLET    
ws-112           0.013      0.1        0.05       0.05       25         OUTLET    
ws-114           0.013      0.1        0.05       0.05       25         OUTLET    
ws-115           0.013      0.1        0.05       0.05       25         OUTLET    
ws-116           0.013      0.1        0.05       0.05       25         OUTLET    
ws-118           0.013      0.1        0.05       0.05       25         OUTLET    
ws-119           0.013      0.1        0.05       0.05       25         OUTLET    
ws-120           0.013      0.1        0.05       0.05       25         OUTLET    
ws-121           0.013      0.1        0.05       0.05       25         OUTLET    
ws-122           0.013      0.1        0.05       0.05       25         OUTLET    
ws-123           0.013      0.1        0.05       0.05       25         OUTLET    
ws-124           0.013      0.1        0.05       0.05       25         OUTLET    
ws-127           0.013      0.1        0.05       0.05       25         OUTLET    
ws-128           0.013      0.1        0.05       0.05       25         OUTLET    
ws-130           0.013      0.1        0.05       0.05       25         OUTLET    
ws-131           0.013      0.1        0.05       0.05       25         OUTLET    
ws-132           0.013      0.1        0.05       0.05       25         OUTLET    
ws-136           0.013      0.1        0.05       0.05       25         OUTLET    
ws-137           0.013      0.1        0.05       0.05       25         OUTLET    
ws-138           0.013      0.1        0.05       0.05       25         OUTLET    
ws-139           0.013      0.1        0.05       0.05       25         OUTLET    
ws-141           0.013      0.1        0.05       0.05       25         OUTLET    
ws-142           0.013      0.1        0.05       0.05       25         OUTLET    
ws-143           0.013      0.1        0.05       0.05       25         OUTLET    
ws-144           0.013      0.1        0.05       0.05       25         OUTLET    
ws-145           0.013      0.1        0.05       0.05       25         OUTLET    
ws-146           0.013      0.1        0.05       0.05       25         OUTLET    
ws-148           0.013      0.1        0.05       0.05       25         OUTLET    
ws-149           0.013      0.1        0.05       0.05       25         OUTLET    
ws-150           0.013      0.1        0.05       0.05       25         OUTLET    
ws-154           0.013      0.1        0.05       0.05       25         OUTLET    
ws-155           0.013      0.1        0.05       0.05       25         OUTLET    
ws-156           0.013      0.1        0.05       0.05       25         OUTLET    
ws-157           0.013      0.1        0.05       0.05       25         OUTLET    
ws-159           0.013      0.1        0.05       0.05       25         OUTLET    
ws-161           0.013      0.1        0.05       0.05       25         OUTLET    
ws-162           0.013      0.1        0.05       0.05       25         OUTLET    
ws-163           0.013      0.1        0.05       0.05       25         OUTLET    
ws-165           0.013      0.1        0.05       0.05       25         OUTLET    
ws-166           0.013      0.1        0.05       0.05       25         OUTLET    
ws-167           0.013      0.1        0.05       0.05       25         OUTLET    
ws-168           0.013      0.1        0.05       0.05       25         OUTLET    
ws-169           0.013      0.1        0.05       0.05       25         OUTLET    
ws-170           0.013      0.1        0.05       0.05       25         OUTLET    
ws-171           0.013      0.1        0.05       0.05       25         OUTLET    
ws-172           0.013      0.1        0.05       0.05       25         OUTLET    
ws-173           0.013      0.1        0.05       0.05       25         OUTLET    
ws-174           0.013      0.1        0.05       0.05       25         OUTLET    

[INFILTRATION]
;;Subcatchment   CurveNum   HydCon     DryTime   
;;-------------- ---------- ---------- ----------
ws-1             91         0.43       7         
ws-2             86         0.43       7         
ws-3             85         0.43       7         
ws-7             81         0.43       7         
ws-8             87         0.43       7         
ws-9             89         0.43       7         
ws-10            90         0.43       7         
ws-11            88         0.43       7         
ws-12            90         0.43       7         
ws-13            85         0.43       7         