[TITLE]
;;Project Title/Notes
Scenario Run :  SCN-22May 5 - The UH duration in the simulation options was varied from 5 - 20 minutes in 5 minute increments and no change in the runoff occured
SCS Type II 24 hr 100 yr storm for storage.
SCS Type II 24 hr 25 yr storm for major conveyance

[OPTIONS]
;;Option            	Value
FLOW_UNITS          	CFS
INFILTRATION        	CURVE_NUMBER
FLOW_ROUTING        	DYNWAVE
LINK_OFFSETS        	DEPTH
MIN_SLOPE           	0
ALLOW_PONDING       	YES
SKIP_STEADY_STATE   	NO

START_DATE          	01/01/2002
START_TIME          	00:00:00
REPORT_START_DATE   	01/01/2002
REPORT_START_TIME   	00:00:00
END_DATE            	01/02/2002
END_TIME            	23:00:00
SWEEP_START         	01/01
SWEEP_END           	12/31
DRY_DAYS            	5.000000
REPORT_STEP         	00:05:00
WET_STEP            	00:10:00
DRY_STEP            	23:00:00
ROUTING_STEP        	0:00:05 

INERTIAL_DAMPING    	PARTIAL
NORMAL_FLOW_LIMITED 	BOTH
FORCE_MAIN_EQUATION 	H-W
VARIABLE_STEP       	0.00
LENGTHENING_STEP    	0
MIN_SURFAREA        	12.557
MAX_TRIALS          	8
HEAD_TOLERANCE      	0.005
SYS_FLOW_TOL        	5
LAT_FLOW_TOL        	5

[EVAPORATION]
;;Evap Data     	Parameters
;;--------------	----------------
CONSTANT        	0.000000
DRY_ONLY        	NO

[RAINGAGES]
;;Gage          	Format   	Interval	SCF     	Source    
;;--------------	---------	------	------	----------
; Logan USU
RAINGAGE-1      	CUMULATIVE	0.500000	1.000000	TIMESERIES	TIMESERI-23     
; Logan USU Exp. Stn.
RAINGAGE-2      	CUMULATIVE	0.500000	1.000000	TIMESERIES	TIMESERI-19     
; Logan Radio KVNU
RAINGAGE-3      	CUMULATIVE	0.500000	1.000000	TIMESERIES	TIMESERI-21     
; Logan 5 SW Exp. Farm
RAINGAGE-4      	CUMULATIVE	0.500000	1.000000	TIMESERIES	TIMESERI-17     

[SUBCATCHMENTS]
;;Subcatchment  	Rain Gage       	Outlet          	Area    	%Imperv 	Width   	%Slope  	CurbLen 	Snow Pack       
;;--------------	----------------	----------------	--------	--------	--------	--------	--------	----------------
; New Subcatchment
SUB-1036        	RAINGAGE-1      	JCT-1170        	21.849495	25.000000	500.000000	4.710700	0.000000	                
; New Subcatchment
SUB-1038        	RAINGAGE-1      	JCT-1168        	14.991803	25.000000	500.000000	5.098700	0.000000	                
; New Subcatchment
SUB-1040        	RAINGAGE-1      	JCT-1166        	13.853334	25.000000	500.000000	4.604700	0.000000	                
; New Subcatchment
SUB-1042        	RAINGAGE-1      	JCT-1164        	15.465643	25.000000	500.000000	4.648000	0.000000	                
SUB-622         	RAINGAGE-1      	JCT-1190        	30.296031	25.000000	3958.572595	4.648011	0.000000	                
SUB-634         	RAINGAGE-1      	JCT-1194        	34.214197	25.000000	3794.336637	5.098710	0.000000	                
SUB-688         	RAINGAGE-1      	JCT-1192        	35.080553	25.000000	3826.858554	4.604650	0.000000	                
SUB-710         	RAINGAGE-1      	JCT-784         	81.491886	25.000000	3806.779854	2.970572	0.000000	                
SUB-712         	RAINGAGE-1      	STOR-118        	27.099545	25.000000	2367.456650	17.444849	0.000000	                
SUB-714         	RAINGAGE-2      	JCT-546         	33.267485	25.000000	2627.920892	4.979839	0.000000	                
SUB-716         	RAINGAGE-2      	JCT-1200        	30.856532	25.000000	4550.160257	4.014203	0.000000	                
SUB-724         	RAINGAGE-2      	JCT-544         	12.046188	25.000000	1346.124572	6.266186	0.000000	                
SUB-736         	RAINGAGE-1      	JCT-1186        	7.341781	25.000000	1339.649749	9.600404	0.000000	                
SUB-738         	RAINGAGE-3      	JCT-1184        	23.265503	25.000000	3233.224538	8.024135	0.000000	                
SUB-744         	RAINGAGE-1      	JCT-1198        	36.148929	25.000000	4169.414561	4.334899	0.000000	                
; JCT-650
SUB-746         	RAINGAGE-1      	JCT-1196        	37.208152	25.000000	3974.394053	4.710704	0.000000	                
SUB-748         	RAINGAGE-1      	JCT-1176        	35.069444	25.000000	3912.844471	6.785656	0.000000	                
SUB-750         	RAINGAGE-2      	JCT-640         	24.293800	25.000000	2542.125165	4.718851	0.000000	                
SUB-752         	RAINGAGE-1      	JCT-642         	6.793695	25.000000	1351.804055	4.934467	0.000000	                
SUB-762         	RAINGAGE-1      	JCT-1188        	27.699208	25.000000	4469.451691	5.713082	0.000000	                
SUB-774         	RAINGAGE-1      	JCT-1172        	19.001972	25.000000	2250.257278	9.992063	0.000000	                
SUB-776         	RAINGAGE-1      	JCT-1234        	175.565096	25.000000	7515.394943	52.328733	0.000000	                
SUB-790         	RAINGAGE-1      	JCT-642         	19.553335	25.000000	2677.656948	11.534904	0.000000	                
SUB-796         	RAINGAGE-2      	JCT-1202        	17.954617	25.000000	2263.659252	3.648734	0.000000	                
SUB-802         	RAINGAGE-3      	JCT-1182        	9.253820	25.000000	2056.807369	8.850931	0.000000	                
SUB-804         	RAINGAGE-1      	JCT-698         	51.483337	25.000000	3225.543169	2.747013	0.000000	                
SUB-806         	RAINGAGE-2      	JCT-632         	62.431408	40.000000	4250.751702	4.766074	0.000000	                
SUB-810         	RAINGAGE-1      	JCT-560         	79.582482	30.000000	5525.804926	5.944569	0.000000	                
SUB-812         	RAINGAGE-1      	JCT-570         	61.083024	25.000000	4572.778468	2.657351	0.000000	                
SUB-814         	RAINGAGE-2      	JCT-548         	26.129675	25.000000	3555.640494	3.473847	0.000000	                
SUB-818         	RAINGAGE-1      	JCT-718         	141.349405	0.000000	10235.199479	56.393047	0.000000	                
SUB-820         	RAINGAGE-2      	JCT-1204        	13.854700	25.000000	2487.483214	3.628801	0.000000	                
SUB-830         	RAINGAGE-1      	JCT-716         	176.102495	25.000000	9836.437447	57.409600	0.000000	                
SUB-840         	RAINGAGE-1      	JCT-1238        	7.889248	25.000000	1309.621659	4.569979	0.000000	                
SUB-844         	RAINGAGE-1      	JCT-718         	44.209643	25.000000	2938.871131	11.251542	0.000000	                
; JCT-716
SUB-846         	RAINGAGE-1      	STOR-122        	30.779071	25.000000	2258.392732	13.923946	0.000000	                
SUB-848         	RAINGAGE-1      	JCT-562         	87.303172	25.000000	5105.808437	4.167316	0.000000	                
SUB-850         	RAINGAGE-1      	STOR-10         	55.073418	25.000000	3388.048226	3.699268	0.000000	                
SUB-852         	RAINGAGE-1      	JCT-542         	14.998921	25.000000	3258.338954	5.768533	0.000000	                
SUB-854         	RAINGAGE-1      	JCT-146         	51.507061	25.000000	3458.884320	8.907886	0.000000	                
SUB-856         	RAINGAGE-1      	JCT-144         	52.978402	25.000000	3203.440575	5.711599	0.000000	                
; New Subcatchment
SUB-866         	RAINGAGE-1      	JCT-664         	2.090462	25.000000	500.000000	1.270000	0.000000	                
; New Subcatchment
SUB-868         	RAINGAGE-1      	JCT-542         	21.719828	25.000000	500.000000	4.200000	0.000000	                
; New Subcatchment
SUB-870         	RAINGAGE-1      	JCT-664         	11.738616	25.000000	500.000000	0.900000	0.000000	                
; New Subcatchment
SUB-872         	RAINGAGE-2      	JCT-1126        	12.494091	25.000000	500.000000	3.200000	0.000000	                
; New Subcatchment
SUB-882         	RAINGAGE-1      	JCT-1188        	45.270064	25.000000	500.000000	3.500000	0.000000	                

[SUBAREAS]
;;Subcatchment  	N-Imperv  	N-Perv    	S-Imperv  	S-Perv    	PctZero   	RouteTo   	PctRouted 
;;--------------	----------	----------	----------	----------	----------	----------	----------
SUB-1036        	0.100000  	0.001000  	0.050000  	0.050000  	25.000000 	OUTLET    
SUB-1038        	0.100000  	0.001000  	0.050000  	0.050000  	25.000000 	OUTLET    
SUB-1040        	0.100000  	0.001000  	0.050000  	0.050000  	25.000000 	OUTLET    
SUB-1042        	0.100000  	0.001000  	0.050000  	0.050000  	25.000000 	OUTLET    
SUB-622         	0.100000  	0.001000  	0.050000  	0.050000  	25.000000 	OUTLET    
SUB-634         	0.100000  	0.001000  	0.050000  	0.050000  	25.000000 	OUTLET    
SUB-688         	0.100000  	0.001000  	0.050000  	0.050000  	25.000000 	OUTLET    
SUB-710         	0.100000  	0.001000  	0.050000  	0.050000  	25.000000 	OUTLET    
SUB-712         	0.100000  	0.001000  	0.050000  	0.050000  	25.000000 	OUTLET    
SUB-714         	0.100000  	0.001000  	0.050000  	0.050000  	25.000000 	OUTLET    
SUB-716         	0.100000  	0.001000  	0.050000  	0.050000  	25.000000 	OUTLET    
SUB-724         	0.100000  	0.001000  	0.050000  	0.050000  	25.000000 	OUTLET    
SUB-736         	0.100000  	0.001000  	0.050000  	0.050000  	25.000000 	OUTLET    
SUB-738         	0.100000  	0.001000  	0.050000  	0.050000  	25.000000 	OUTLET    
SUB-744         	0.100000  	0.001000  	0.050000  	0.050000  	25.000000 	OUTLET    
SUB-746         	0.100000  	0.001000  	0.050000  	0.050000  	25.000000 	OUTLET    
SUB-748         	0.100000  	0.001000  	0.050000  	0.050000  	25.000000 	OUTLET    
SUB-750         	0.100000  	0.001000  	0.050000  	0.050000  	25.000000 	OUTLET    
SUB-752         	0.100000  	0.001000  	0.050000  	0.050000  	25.000000 	OUTLET    
SUB-762         	0.100000  	0.001000  	0.050000  	0.050000  	25.000000 	OUTLET    
SUB-774         	0.100000  	0.001000  	0.050000  	0.050000  	25.000000 	OUTLET    
SUB-776         	0.100000  	0.001000  	0.050000  	0.050000  	25.000000 	OUTLET    
SUB-790         	0.100000  	0.001000  	0.050000  	0.050000  	25.000000 	OUTLET    
SUB-796         	0.100000  	0.001000  	0.050000  	0.050000  	25.000000 	OUTLET    
SUB-802         	0.100000  	0.001000  	0.050000  	0.050000  	25.000000 	OUTLET    
SUB-804         	0.100000  	0.001000  	0.050000  	0.050000  	25.000000 	OUTLET    
SUB-806         	0.100000  	0.001000  	0.350000  	0.100000  	25.000000 	OUTLET    
SUB-810         	0.100000  	0.001000  	0.100000  	0.350000  	25.000000 	OUTLET    
SUB-812         	0.100000  	0.001000  	0.050000  	0.050000  	25.000000 	OUTLET    
SUB-814         	0.100000  	0.001000  	0.050000  	0.050000  	25.000000 	OUTLET    
SUB-818         	0.100000  	0.001000  	0.400000  	0.200000  	25.000000 	OUTLET    
SUB-820         	0.100000  	0.001000  	0.050000  	0.050000  	25.000000 	OUTLET    
SUB-830         	0.100000  	0.001000  	0.050000  	0.050000  	25.000000 	OUTLET    
SUB-840         	0.100000  	0.001000  	0.050000  	0.050000  	25.000000 	OUTLET    
SUB-844         	0.100000  	0.001000  	0.050000  	0.050000  	25.000000 	OUTLET    
SUB-846         	0.100000  	0.001000  	0.050000  	0.050000  	25.000000 	OUTLET    
SUB-848         	0.100000  	0.001000  	0.050000  	0.050000  	25.000000 	OUTLET    
SUB-850         	0.100000  	0.001000  	0.050000  	0.050000  	25.000000 	OUTLET    
SUB-852         	0.100000  	0.001000  	0.050000  	0.050000  	25.000000 	OUTLET    
SUB-854         	0.100000  	0.001000  	0.050000  	0.050000  	25.000000 	OUTLET    
SUB-856         	0.100000  	0.001000  	0.075000  	0.350000  	25.000000 	OUTLET    
SUB-866         	0.100000  	0.001000  	0.050000  	0.050000  	25.000000 	OUTLET    
SUB-868         	0.100000  	0.001000  	0.050000  	0.050000  	25.000000 	OUTLET    
SUB-870         	0.100000  	0.001000  	0.050000  	0.050000  	25.000000 	OUTLET    
SUB-872         	0.100000  	0.001000  	0.050000  	0.050000  	25.000000 	OUTLET    
SUB-882         	0.100000  	0.001000  	0.050000  	0.050000  	25.000000 	OUTLET    

[INFILTRATION]
;;Subcatchment  	CurveNum  	HydCon    	DryTime   
;;--------------	----------	----------	----------
SUB-1036        	80.575758 	0.151515  	75.000000 
SUB-1038        	80.750000 	0.150000  	75.000000 
SUB-1040        	79.070000 	0.150000  	75.000000 
SUB-1042        	81.440000 	0.144000  	75.000000 
SUB-622         	81.440000 	0.144000  	75.000000 
SUB-634         	80.750000 	0.150000  	75.000000 
SUB-688         	79.070000 	0.150000  	75.000000 
SUB-710         	82.282828 	0.141414  	75.000000 
SUB-712         	80.390000 	0.144400  	75.000000 
SUB-714         	82.680000 	0.125400  	75.000000 
SUB-716         	83.545455 	0.135354  	75.000000 
SUB-724         	92.010000 	0.040000  	75.000000 
SUB-736         	85.910000 	0.166000  	75.000000 
SUB-738         	82.386139 	0.136634  	75.000000 
SUB-744         	81.940000 	0.144000  	75.000000 
SUB-746         	80.575758 	0.151515  	75.000000 
SUB-748         	87.336634 	0.136634  	75.000000 
SUB-750         	78.656566 	0.146465  	75.000000 
SUB-752         	98.000000 	0.000000  	75.000000 
SUB-762         	83.306931 	0.134653  	75.000000 
SUB-774         	87.792079 	0.152475  	75.000000 
SUB-776         	51.000000 	0.200000  	75.000000 
SUB-790         	94.300000 	0.020000  	75.000000 
SUB-796         	79.891089 	0.154455  	75.000000 
SUB-802         	85.580000 	0.108000  	75.000000 
SUB-804         	61.747475 	0.195960  	75.000000 
SUB-806         	80.653465 	0.147525  	75.000000 
SUB-810         	78.840000 	0.152000  	75.000000 
SUB-812         	91.000000 	0.100000  	75.000000 
SUB-814         	79.989899 	0.128283  	75.000000 
SUB-818         	51.000000 	0.200000  	75.000000 
SUB-820         	91.210000 	0.074000  	75.000000 
SUB-830         	51.000000 	0.200000  	75.000000 
SUB-840         	77.510000 	0.162000  	75.000000 
SUB-844         	77.300000 	0.180000  	75.000000 
SUB-846         	77.300000 	0.180000  	75.000000 
SUB-848         	78.750000 	0.161000  	75.000000 
SUB-850         	81.890000 	0.134000  	75.000000 
SUB-852         	74.500000 	0.145000  	75.000000 
SUB-854         	79.600000 	0.160000  	75.000000 
SUB-856         	80.948454 	0.146392  	75.000000 
SUB-866         	97.260000 	0.004000  	75.000000 
SUB-868         	91.000000 	0.100000  	75.000000 
SUB-870         	96.150000 	0.010000  	75.000000 
SUB-872         	77.300000 	0.180000  	75.000000 
SUB-882         	81.440000 	0.144000  	75.000000 

[JUNCTIONS]
;;Junction      	Invert    	Dmax      	Dinit     	Dsurch    	Aponded   
;;--------------	----------	----------	----------	----------	----------
; New Junction
JCT-1126        	4563.204000	4.276000  	0.000000  	0.000000  	0.000000  
JCT-1164        	4634.865000	5.000000  	0.000000  	0.000000  	0.000000  
JCT-1166        	4634.234000	5.000000  	0.000000  	0.000000  	0.000000  
JCT-1168        	4633.660000	5.000000  	0.000000  	0.000000  	0.000000  
JCT-1170        	4633.085000	5.000000  	0.000000  	0.000000  	0.000000  
JCT-1172        	4632.550000	5.000000  	0.000000  	0.000000  	0.000000  
JCT-1174        	4632.080000	5.000000  	0.000000  	0.000000  	0.000000  
JCT-1176        	4631.160000	5.000000  	0.000000  	0.000000  	0.000000  
JCT-1178        	4629.605000	5.000000  	0.000000  	0.000000  	0.000000  
JCT-1182        	4560.178700	5.000000  	0.000000  	0.000000  	0.000000  
JCT-1184        	4559.697200	5.000000  	0.000000  	0.000000  	0.000000  
JCT-1186        	4559.302000	5.000000  	0.000000  	0.000000  	0.000000  
JCT-1188        	4558.892200	5.000000  	0.000000  	0.000000  	0.000000  
JCT-1190        	4558.567900	5.000000  	0.000000  	0.000000  	0.000000  
JCT-1192        	4558.273700	5.000000  	0.000000  	0.000000  	0.000000  
JCT-1194        	4557.839900	5.000000  	0.000000  	0.000000  	0.000000  
JCT-1196        	4557.528000	5.000000  	0.000000  	0.000000  	0.000000  
JCT-1198        	4557.172500	5.000000  	0.000000  	0.000000  	0.000000  
JCT-1200        	4556.908600	5.000000  	0.000000  	0.000000  	0.000000  
JCT-1202        	4556.403300	5.000000  	0.000000  	0.000000  	0.000000  
JCT-1204        	4555.790000	5.000000  	0.000000  	0.000000  	0.000000  
JCT-1206        	4555.265600	6.000000  	0.000000  	0.000000  	0.000000  
JCT-1232        	4841.674800	5.000005  	0.000000  	0.000000  	0.000000  
JCT-1234        	4840.145600	5.000000  	0.000000  	0.000000  	0.000000  
JCT-1236        	4838.726100	5.000000  	0.000000  	0.000000  	0.000000  
JCT-1238        	4838.089400	5.000000  	0.000000  	0.000000  	0.000000  
; New Junction
JCT-1240        	4629.201500	4.999500  	0.000000  	0.000000  	0.000000  
; New Junction
JCT-1242        	4631.750000	5.000000  	0.000000  	0.000000  	0.000000  
; New Junction
JCT-1244        	4637.500000	4.000000  	0.000000  	0.000000  	0.000000  
; New Junction
JCT-1246        	4630.100000	5.000000  	0.000000  	0.000000  	0.000000  
; New Junction
JCT-1248        	4638.340000	4.000000  	0.000000  	0.000000  	0.000000  
; New Junction
JCT-1250        	4556.705000	5.000000  	0.000000  	0.000000  	0.000000  
; New Junction
JCT-1270        	4633.430000	5.000000  	0.000000  	0.000000  	0.000000  
; New Junction
JCT-1280        	4624.222000	5.778000  	0.000000  	0.000000  	0.000000  
; New Junction
JCT-1282        	4552.520000	6.000000  	0.000000  	0.000000  	0.000000  
JCT-1284        	4524.400000	5.000000  	0.000000  	0.000000  	0.000000  
; New Junction
JCT-1300        	4839.297500	4.000000  	0.000000  	0.000000  	0.000000  
JCT-144         	4768.110000	4.745957  	0.000000  	0.000000  	0.000000  
JCT-146         	4684.000000	13.068359 	0.000000  	0.000000  	0.000000  
; New Junction
JCT-542         	4636.375800	4.624200  	0.000000  	0.000000  	0.000000  
; New Junction
JCT-544         	4601.205100	3.999978  	0.000000  	0.000000  	0.000000  
; New Junction
JCT-546         	4588.737800	3.999993  	0.000000  	0.000000  	0.000000  
; New Junction
JCT-548         	4572.330000	4.003496  	0.000000  	0.000000  	0.000000  
JCT-560         	4793.000000	15.617188 	0.000000  	0.000000  	0.000000  
JCT-562         	4796.700000	4.698926  	0.000000  	0.000000  	0.000000  
JCT-566         	4753.110000	3.997910  	0.000000  	0.000000  	0.000000  
; New Junction
JCT-568         	4780.000000	4.000000  	0.000000  	0.000000  	0.000000  
JCT-570         	4780.000000	9.916016  	0.000000  	0.000000  	0.000000  
; New Junction
JCT-592         	4697.010000	3.995371  	0.000000  	0.000000  	0.000000  
; New Junction
JCT-594         	4697.160000	4.173496  	0.000000  	0.000000  	0.000000  
; New Junction
JCT-596         	4586.000000	5.425293  	0.000000  	0.000000  	0.000000  
JCT-614         	4655.340000	3.998867  	0.000000  	0.000000  	0.000000  
JCT-620         	4556.910000	4.003574  	0.000000  	0.000000  	0.000000  
JCT-632         	4569.380000	4.000859  	0.000000  	0.000000  	0.000000  
JCT-636         	4563.800000	4.003223  	0.000000  	0.000000  	0.000000  
; New Junction
JCT-638         	4559.538000	4.000086  	0.000000  	0.000000  	0.000000  
; New Junction
JCT-640         	4617.940000	3.997012  	0.000000  	0.000000  	0.000000  
JCT-642         	4660.920000	3.996016  	0.000000  	0.000000  	0.000000  
JCT-662         	4788.870000	3.999141  	0.000000  	0.000000  	0.000000  
JCT-664         	4769.180000	4.004082  	0.000000  	0.000000  	0.000000  
JCT-666         	4638.250000	5.000000  	0.000000  	0.000000  	0.000000  
JCT-698         	4677.980000	4.000000  	0.000000  	0.000000  	0.000000  
; New Junction
JCT-702         	4561.000000	15.660000 	0.000000  	0.000000  	0.000000  
JCT-708         	4812.820000	4.000000  	0.000000  	0.000000  	0.000000  
JCT-716         	4854.490000	4.000000  	0.000000  	0.000000  	0.000000  
JCT-718         	4860.720000	4.000000  	0.000000  	0.000000  	0.000000  
; New Junction
JCT-780         	4790.670000	9.420000  	0.000000  	0.000000  	0.000000  
JCT-784         	4788.210000	4.000000  	0.000000  	0.000000  	0.000000  
; New Junction
JCT-842         	4766.000000	4.000000  	0.000000  	0.000000  	0.000000  

[OUTFALLS]
;;Outfall       	Invert    	Type      	Stage Data      	Gated   
;;--------------	----------	----------	----------------	--------
OFALL-190       	4836.428000	FREE      	                	NO
OFALL-192       	4542.000000	FREE      	                	NO
JCT-1216        	4477.350000	FIXED     	4477.350000     	NO

[STORAGE]
;;Storage Node  	Invert  	Dmax    	Dinit    	Curve     	Name/Params                 	Aponded 	Fevap   	SeepRate
;;--------------	--------	--------	---------	----------	----------------------------	--------	--------	--------
; Existing Storage
STOR-10         	4784.000000	3.500000	0.000000 	FUNCTIONAL	7144.721470  1.000000  1174.934661	0.000000	0.000000	0       
; New Storage
STOR-114        	4619.000000	5.000000	0.000000 	FUNCTIONAL	4156.827341  1.000000  109895.863300	0.000000	0.000000	0       
; New Storage
STOR-116        	4537.000000	5.000000	0.000000 	FUNCTIONAL	9163.818808  1.000000  607580.906000	0.000000	0.000000	0       
; New Storage
STOR-118        	4812.550000	3.000000	0.000000 	FUNCTIONAL	3926.025246  1.000000  97121.924260	0.000000	0.000000	0       
; New Storage
STOR-122        	4845.000000	3.000000	0.000000 	FUNCTIONAL	1266.116299  1.000000  8398.451104	0.000000	0.000000	0       
; Proposed Storage
STOR-22         	4690.000000	5.000000	0.000000 	FUNCTIONAL	4803.119960  1.000000  150224.400200	0.000000	0.000000	0       
; Proposed Storage
STOR-34         	4845.000000	3.000000	0.000000 	FUNCTIONAL	1908.770316  1.000000  20409.689050	0.000000	0.000000	0       

[CONDUITS]
;;Conduit       	From Node       	To Node         	Length    	Roughness 	InOffset  	OutOffset 	InitFlow  	MaxFlow   
;;--------------	----------------	----------------	----------	----------	----------	----------	----------	----------
; New Conduit
CDT-1271        	JCT-1126        	JCT-638         	227.435398	0.013000  	0.000000  	0.000000  	0.000000  	0.000000  
; New Conduit
CDT-1293        	JCT-718         	STOR-34         	147.498209	0.013000  	0.000000  	0.000000  	0.000000  	0.000000  
; New Conduit
CDT-1295        	JCT-716         	STOR-34         	136.203951	0.013000  	0.000000  	0.000000  	0.000000  	0.000000  
; New Conduit
CDT-1297        	JCT-592         	STOR-22         	84.816391 	0.013000  	0.000000  	0.000000  	0.000000  	0.000000  
; New Conduit
CDT-1299        	JCT-594         	STOR-22         	93.290977 	0.013000  	0.000000  	0.000000  	0.000000  	0.000000  
CDT-1301        	JCT-548         	JCT-1126        	461.920526	0.013000  	0.000000  	0.000000  	0.000000  	0.000000  
CDT-1343        	JCT-1164        	JCT-1166        	788.856926	0.013000  	0.000000  	0.000000  	0.000000  	0.000000  
CDT-1345        	JCT-1166        	JCT-1168        	716.699701	0.013000  	0.000000  	0.000000  	0.000000  	0.000000  
CDT-1347        	JCT-1168        	JCT-1270        	285.251791	0.013000  	0.000000  	0.000000  	0.000000  	0.000000  
CDT-1349        	JCT-1170        	JCT-1172        	665.281556	0.013000  	0.000000  	0.000000  	0.000000  	0.000000  
CDT-1351        	JCT-1172        	JCT-1174        	591.067860	0.013000  	0.000000  	0.000000  	0.000000  	0.000000  
CDT-1353        	JCT-1174        	JCT-1242        	416.332181	0.013000  	0.000000  	0.000000  	0.000000  	0.000000  
CDT-1355        	JCT-1176        	JCT-1246        	1319.013015	0.013000  	0.000000  	0.000000  	0.000000  	0.000000  
CDT-1357        	JCT-1178        	JCT-1240        	504.804113	0.013000  	0.000000  	0.000000  	0.000000  	0.000000  
CDT-1361        	JCT-1182        	JCT-1184        	615.755697	0.013000  	0.000000  	0.000000  	0.000000  	0.000000  
CDT-1363        	JCT-1184        	JCT-1186        	786.801764	0.013000  	0.000000  	0.000000  	0.000000  	0.000000  
CDT-1365        	JCT-1186        	JCT-1188        	819.683531	0.013000  	0.000000  	0.000000  	0.000000  	0.000000  
CDT-1367        	JCT-1188        	JCT-1190        	648.615963	0.013000  	0.000000  	0.000000  	0.000000  	0.000000  
CDT-1369        	JCT-1190        	JCT-1192        	588.312842	0.013000  	0.000000  	0.000000  	0.000000  	0.000000  
CDT-1371        	JCT-1192        	JCT-1194        	867.575730	0.013000  	0.000000  	0.000000  	0.000000  	0.000000  
CDT-1373        	JCT-1194        	JCT-1196        	623.632000	0.013000  	0.000000  	0.000000  	0.000000  	0.000000  
CDT-1375        	JCT-1196        	JCT-1198        	711.258463	0.013000  	0.000000  	0.000000  	0.000000  	0.000000  
CDT-1377        	JCT-1198        	JCT-1200        	527.811370	0.013000  	0.000000  	0.000000  	0.000000  	0.000000  
CDT-1379        	JCT-1200        	JCT-1250        	407.244170	0.013000  	0.000000  	0.000000  	0.000000  	0.000000  
CDT-1381        	JCT-1202        	JCT-1204        	1221.325633	0.013000  	0.000000  	0.000000  	0.000000  	0.000000  
CDT-1383        	JCT-1204        	JCT-1206        	1054.100603	0.013000  	0.000000  	0.000000  	0.000000  	0.000000  
CDT-1385        	JCT-1206        	JCT-1282        	5494.603702	0.013000  	0.000000  	0.000000  	0.000000  	0.000000  
CDT-1429        	JCT-1232        	JCT-1234        	3058.331609	0.013000  	0.000000  	0.000000  	0.000000  	0.000000  
CDT-1431        	JCT-1234        	JCT-1300        	1696.125803	0.013000  	0.000000  	0.000000  	0.000000  	0.000000  
CDT-1433        	JCT-1236        	JCT-1238        	1273.383032	0.013000  	0.000000  	0.000000  	0.000000  	0.000000  
CDT-1435        	JCT-1238        	OFALL-190       	4700.386188	0.013000  	0.000000  	0.000000  	0.000000  	0.000000  
; New Conduit
CDT-1441        	JCT-542         	JCT-1240        	81.047998 	0.013000  	0.000000  	0.000000  	0.000000  	0.000000  
; Splitted conduit
CDT-1443        	JCT-1242        	JCT-1176        	738.609857	0.013000  	0.000000  	0.000000  	0.000000  	0.000000  
; New Conduit
CDT-1447        	JCT-1244        	JCT-1242        	46.237138 	0.013000  	0.000000  	0.000000  	0.000000  	0.000000  
; Splitted conduit
CDT-1449        	JCT-1246        	JCT-1178        	620.325700	0.013000  	0.000000  	0.000000  	0.000000  	0.000000  
; New Conduit
CDT-1453        	JCT-1248        	JCT-1246        	87.091405 	0.013000  	0.000000  	0.000000  	0.000000  	0.000000  
; New Conduit
CDT-1455        	JCT-638         	JCT-1206        	243.450266	0.013000  	0.000000  	0.000000  	0.000000  	0.000000  
; Splitted conduit
CDT-1457        	JCT-1250        	JCT-1202        	603.324574	0.013000  	0.000000  	0.000000  	0.000000  	0.000000  
; New Conduit
CDT-1459        	JCT-620         	JCT-1250        	109.190005	0.013000  	0.000000  	0.000000  	0.000000  	0.000000  
; Splitted conduit
CDT-1497        	JCT-1270        	JCT-1170        	433.603553	0.013000  	0.000000  	0.000000  	0.000000  	0.000000  
CDT-1499        	JCT-666         	JCT-1270        	23.032782 	0.013000  	0.000000  	0.000000  	0.000000  	0.000000  
CDT-1529        	JCT-1240        	JCT-1280        	6223.301204	0.013000  	0.000000  	0.000000  	0.000000  	0.000000  
CDT-1533        	JCT-1280        	STOR-114        	437.905446	0.010000  	0.000000  	0.000000  	0.000000  	0.000000  
CDT-1535        	JCT-1282        	STOR-116        	444.213619	0.010000  	0.000000  	0.000000  	0.000000  	0.000000  
CDT-1537        	JCT-1284        	JCT-1216        	4228.379835	0.013000  	0.000000  	0.000000  	0.000000  	0.000000  
CDT-1539        	JCT-1282        	OFALL-192       	2387.652637	0.013000  	0.000000  	0.000000  	0.000000  	0.000000  
; Splitted conduit
CDT-1561        	JCT-1300        	JCT-1236        	1142.880329	0.013000  	0.000000  	0.000000  	0.000000  	0.000000  
; New Conduit
CDT-447         	JCT-146         	JCT-542         	1792.645485	0.013000  	0.000000  	0.000000  	0.000000  	0.000000  
; New Conduit
CDT-453         	JCT-544         	JCT-546         	686.188419	0.013000  	0.000000  	0.000000  	0.000000  	0.000000  
CDT-469         	JCT-560         	JCT-780         	466.934073	0.013000  	0.000000  	0.000000  	0.000000  	0.000000  
CDT-471         	JCT-562         	JCT-560         	1542.041683	0.013000  	0.000000  	0.000000  	0.000000  	0.000000  
CDT-475         	JCT-566         	JCT-592         	757.348131	0.013000  	0.000000  	0.000000  	0.000000  	0.000000  
; New Conduit
CDT-477         	JCT-568         	JCT-842         	684.033548	0.013000  	0.000000  	0.000000  	0.000000  	0.000000  
CDT-483         	JCT-570         	JCT-566         	1325.830944	0.013000  	0.000000  	0.000000  	0.000000  	0.000000  
; Splitted conduit
CDT-519         	JCT-596         	JCT-548         	596.926525	0.013000  	0.000000  	0.000000  	0.000000  	0.000000  
CDT-543         	JCT-614         	JCT-1244        	512.100744	0.013000  	0.000000  	0.000000  	0.000000  	0.000000  
CDT-567         	JCT-636         	JCT-638         	774.215773	0.013000  	0.000000  	0.000000  	0.000000  	0.000000  
; Splitted conduit
CDT-569         	JCT-640         	JCT-544         	711.675962	0.013000  	0.000000  	0.000000  	0.000000  	0.000000  
CDT-571         	JCT-642         	JCT-1248        	1122.405557	0.013000  	0.000000  	0.000000  	0.000000  	0.000000  
CDT-589         	JCT-662         	JCT-664         	2094.162645	0.013000  	0.000000  	0.000000  	0.000000  	0.000000  
CDT-591         	JCT-664         	JCT-666         	1476.302256	0.013000  	0.000000  	0.000000  	0.000000  	0.000000  
CDT-639         	JCT-698         	JCT-614         	396.893258	0.013000  	0.000000  	0.000000  	0.000000  	0.000000  
; Splitted conduit
CDT-649         	JCT-702         	JCT-620         	619.908958	0.013000  	0.000000  	0.000000  	0.000000  	0.000000  
; New Conduit
CDT-651         	JCT-632         	JCT-702         	570.418838	0.013000  	0.000000  	0.000000  	0.000000  	0.000000  
CDT-659         	JCT-708         	JCT-560         	652.733441	0.013000  	0.000000  	0.000000  	0.000000  	0.000000  
; Splitted conduit
CDT-745         	JCT-780         	JCT-144         	795.636171	0.013000  	0.000000  	0.000000  	0.000000  	0.000000  
; New Conduit