[TITLE]
;;Project Title/Notes
Scenario Run :  SCN-22May 5 - The UH duration in the simulation options was varied from 5 - 20 minutes in 5 minute increments and no change in the runoff occured
SCS Type II 24 hr 100 yr storm for storage.
SCS Type II 24 hr 25 yr storm for major conveyance

[OPTIONS]
;;Option            	Value
FLOW_UNITS          	CFS
INFILTRATION        	CURVE_NUMBER
FLOW_ROUTING        	DYNWAVE
LINK_OFFSETS        	DEPTH
MIN_SLOPE           	0
ALLOW_PONDING       	YES
SKIP_STEADY_STATE   	NO

START_DATE          	01/01/2002
START_TIME          	00:00:00
REPORT_START_DATE   	01/01/2002
REPORT_START_TIME   	00:00:00
END_DATE            	01/02/2002
END_TIME            	23:00:00
SWEEP_START         	01/01
SWEEP_END           	12/31
DRY_DAYS            	5.000000
REPORT_STEP         	00:05:00
WET_STEP            	00:10:00
DRY_STEP            	23:00:00
ROUTING_STEP        	0:00:05 

INERTIAL_DAMPING    	PARTIAL
NORMAL_FLOW_LIMITED 	BOTH
FORCE_MAIN_EQUATION 	H-W
VARIABLE_STEP       	0.00
LENGTHENING_STEP    	0
MIN_SURFAREA        	12.557
MAX_TRIALS          	8
HEAD_TOLERANCE      	0.005
SYS_FLOW_TOL        	5
LAT_FLOW_TOL        	5

[EVAPORATION]
;;Evap Data     	Parameters
;;--------------	----------------
CONSTANT        	0.000000
DRY_ONLY        	NO

[RAINGAGES]
;;Gage          	Format   	Interval	SCF     	Source    
;;--------------	---------	------	------	----------
; Logan USU
RAINGAGE-1      	CUMULATIVE	0.500000	1.000000	TIMESERIES	TIMESERI-23     
; Logan USU Exp. Stn.
RAINGAGE-2      	CUMULATIVE	0.500000	1.000000	TIMESERIES	TIMESERI-19     
; Logan Radio KVNU
RAINGAGE-3      	CUMULATIVE	0.500000	1.000000	TIMESERIES	TIMESERI-21     
; Logan 5 SW Exp. Farm
RAINGAGE-4      	CUMULATIVE	0.500000	1.000000	TIMESERIES	TIMESERI-17     

[SUBCATCHMENTS]
;;Subcatchment  	Rain Gage       	Outlet          	Area    	%Imperv 	Width   	%Slope  	CurbLen 	Snow Pack       
;;--------------	----------------	----------------	--------	--------	--------	--------	--------	----------------
; New Subcatchment
SUB-1006        	RAINGAGE-2      	JCT-1096        	18.381845	25.000000	500.000000	2.370000	0.000000	                
; New Subcatchment
SUB-1044        	RAINGAGE-3      	JCT-1230        	9.945378	25.000000	500.000000	2.600000	0.000000	                
SUB-542         	RAINGAGE-2      	JCT-576         	67.821130	25.000000	5349.014761	1.737212	0.000000	                
SUB-548         	RAINGAGE-2      	JCT-576         	120.776979	25.000000	7729.067449	1.937992	0.000000	                
SUB-552         	RAINGAGE-2      	JCT-162         	177.175931	25.000000	11968.082593	1.942384	0.000000	                
SUB-576         	RAINGAGE-2      	STOR-64         	128.811110	25.000000	4267.126997	2.722165	0.000000	                
SUB-582         	RAINGAGE-2      	JCT-1018        	61.983119	25.000000	3519.193191	2.965241	0.000000	                
SUB-600         	RAINGAGE-3      	JCT-1218        	27.441436	25.000000	3969.910925	3.358222	0.000000	                
SUB-602         	RAINGAGE-3      	JCT-750         	42.617364	25.000000	6488.624326	2.987730	0.000000	                
SUB-608         	RAINGAGE-2      	JCT-602         	38.229830	25.000000	2373.939281	2.999949	0.000000	                
SUB-612         	RAINGAGE-2      	JCT-914         	155.437907	25.000000	4693.775389	2.064371	0.000000	                
SUB-618         	RAINGAGE-3      	JCT-1226        	25.459603	25.000000	3178.304831	2.279698	0.000000	                
SUB-620         	RAINGAGE-3      	JCT-1226        	7.580783	25.000000	1330.078901	2.778502	0.000000	                
SUB-636         	RAINGAGE-2      	JCT-556         	21.233402	25.000000	2771.948196	3.032386	0.000000	                
SUB-638         	RAINGAGE-2      	JCT-1212        	33.635897	25.000000	2443.664798	2.902396	0.000000	                
SUB-640         	RAINGAGE-2      	JCT-536         	134.397638	25.000000	6906.601508	2.161927	0.000000	                
SUB-650         	RAINGAGE-3      	JCT-752         	70.673787	25.000000	7125.245723	3.144945	0.000000	                
SUB-660         	RAINGAGE-3      	JCT-758         	11.405767	25.000000	1375.870608	2.981402	0.000000	                
SUB-668         	RAINGAGE-2      	JCT-1214        	63.902741	25.000000	5819.559654	2.747144	0.000000	                
SUB-682         	RAINGAGE-3      	JCT-1220        	25.526862	25.000000	4668.061268	2.302539	0.000000	                
SUB-684         	RAINGAGE-3      	JCT-1224        	53.989268	25.000000	4732.494931	2.521459	0.000000	                
SUB-686         	RAINGAGE-3      	JCT-1222        	69.401372	25.000000	4785.569628	2.428785	0.000000	                
SUB-690         	RAINGAGE-3      	JCT-740         	35.565174	25.000000	2733.085315	2.891979	0.000000	                
SUB-694         	RAINGAGE-1      	JCT-680         	28.171348	25.000000	3637.969299	3.485002	0.000000	                
SUB-706         	RAINGAGE-1      	JCT-738         	15.642661	25.000000	3495.024572	2.727216	0.000000	                
SUB-718         	RAINGAGE-3      	STOR-16         	2.618732	25.000000	1766.693579	2.571410	0.000000	                
SUB-722         	RAINGAGE-3      	STOR-16         	19.812708	25.000000	1729.764946	3.094434	0.000000	                
SUB-726         	RAINGAGE-1      	STOR-14         	17.947589	25.000000	3520.709133	3.254663	0.000000	                
SUB-740         	RAINGAGE-3      	JCT-772         	32.231817	25.000000	2473.761096	3.896658	0.000000	                
SUB-766         	RAINGAGE-2      	JCT-1266        	17.238397	25.000000	2364.776701	3.083220	0.000000	                
SUB-770         	RAINGAGE-3      	JCT-778         	17.551265	25.000000	2248.748586	3.831860	0.000000	                
SUB-780         	RAINGAGE-2      	JCT-726         	62.511844	25.000000	3784.819891	2.757622	0.000000	                
; New Subcatchment
SUB-874         	RAINGAGE-2      	JCT-552         	20.077608	25.000000	500.000000	3.273500	0.000000	                
; New Subcatchment
SUB-876         	RAINGAGE-2      	JCT-724         	32.135960	25.000000	500.000000	3.375700	0.000000	                
; New Subcatchment
SUB-884         	RAINGAGE-1      	JCT-738         	78.446695	25.000000	500.000000	4.000000	0.000000	                
; New Subcatchment
SUB-926         	RAINGAGE-2      	JCT-1008        	40.702701	25.000000	500.000000	2.350000	0.000000	                
; New Subcatchment
SUB-932         	RAINGAGE-2      	JCT-176         	95.903779	25.000000	500.000000	1.850000	0.000000	                
; New Subcatchment
SUB-934         	RAINGAGE-2      	JCT-1014        	72.103542	25.000000	500.000000	1.400000	0.000000	                
; New Subcatchment
SUB-938         	RAINGAGE-2      	JCT-1264        	37.151869	25.000000	500.000000	3.350000	0.000000	                
; New Subcatchment
SUB-940         	RAINGAGE-2      	JCT-962         	17.029210	25.000000	500.000000	3.380000	0.000000	                

[SUBAREAS]
;;Subcatchment  	N-Imperv  	N-Perv    	S-Imperv  	S-Perv    	PctZero   	RouteTo   	PctRouted 
;;--------------	----------	----------	----------	----------	----------	----------	----------
SUB-1006        	0.100000  	0.001000  	0.050000  	0.050000  	25.000000 	OUTLET    
SUB-1044        	0.100000  	0.001000  	0.050000  	0.050000  	25.000000 	OUTLET    
SUB-542         	0.100000  	0.001000  	0.050000  	0.050000  	25.000000 	OUTLET    
SUB-548         	0.100000  	0.001000  	0.050000  	0.050000  	25.000000 	OUTLET    
SUB-552         	0.100000  	0.001000  	0.050000  	0.050000  	25.000000 	OUTLET    
SUB-576         	0.100000  	0.001000  	0.050000  	0.050000  	25.000000 	OUTLET    
SUB-582         	0.100000  	0.001000  	0.050000  	0.050000  	25.000000 	OUTLET    
SUB-600         	0.100000  	0.001000  	0.050000  	0.050000  	25.000000 	OUTLET    
SUB-602         	0.100000  	0.001000  	0.050000  	0.050000  	25.000000 	OUTLET    
SUB-608         	0.100000  	0.001000  	0.050000  	0.050000  	25.000000 	OUTLET    
SUB-612         	0.100000  	0.001000  	0.050000  	0.050000  	25.000000 	OUTLET    
SUB-618         	0.100000  	0.001000  	0.050000  	0.050000  	25.000000 	OUTLET    
SUB-620         	0.100000  	0.001000  	0.050000  	0.050000  	25.000000 	OUTLET    
SUB-636         	0.100000  	0.001000  	0.050000  	0.050000  	25.000000 	OUTLET    
SUB-638         	0.100000  	0.001000  	0.050000  	0.050000  	25.000000 	OUTLET    
SUB-640         	0.100000  	0.001000  	0.050000  	0.050000  	25.000000 	OUTLET    
SUB-650         	0.100000  	0.001000  	0.050000  	0.050000  	25.000000 	OUTLET    
SUB-660         	0.100000  	0.001000  	0.050000  	0.050000  	25.000000 	OUTLET    
SUB-668         	0.100000  	0.001000  	0.050000  	0.050000  	25.000000 	OUTLET    
SUB-682         	0.100000  	0.001000  	0.050000  	0.050000  	25.000000 	OUTLET    
SUB-684         	0.100000  	0.001000  	0.050000  	0.050000  	25.000000 	OUTLET    
SUB-686         	0.100000  	0.001000  	0.050000  	0.050000  	25.000000 	OUTLET    
SUB-690         	0.100000  	0.001000  	0.050000  	0.050000  	25.000000 	OUTLET    
SUB-694         	0.100000  	0.001000  	0.050000  	0.050000  	25.000000 	OUTLET    
SUB-706         	0.100000  	0.001000  	0.050000  	0.050000  	25.000000 	OUTLET    
SUB-718         	0.100000  	0.001000  	0.050000  	0.050000  	25.000000 	OUTLET    
SUB-722         	0.100000  	0.001000  	0.050000  	0.050000  	25.000000 	OUTLET    
SUB-726         	0.100000  	0.001000  	0.050000  	0.050000  	25.000000 	OUTLET    
SUB-740         	0.100000  	0.001000  	0.050000  	0.050000  	25.000000 	OUTLET    
SUB-766         	0.100000  	0.001000  	0.050000  	0.050000  	25.000000 	OUTLET    
SUB-770         	0.100000  	0.001000  	0.050000  	0.050000  	25.000000 	OUTLET    
SUB-780         	0.100000  	0.001000  	0.050000  	0.050000  	25.000000 	OUTLET    
SUB-874         	0.100000  	0.001000  	0.050000  	0.050000  	25.000000 	OUTLET    
SUB-876         	0.100000  	0.001000  	0.050000  	0.050000  	25.000000 	OUTLET    
SUB-884         	0.100000  	0.001000  	0.050000  	0.050000  	25.000000 	OUTLET    
SUB-926         	0.100000  	0.001000  	0.050000  	0.050000  	25.000000 	OUTLET    
SUB-932         	0.100000  	0.001000  	0.050000  	0.050000  	25.000000 	OUTLET    
SUB-934         	0.100000  	0.001000  	0.050000  	0.050000  	25.000000 	OUTLET    
SUB-938         	0.100000  	0.001000  	0.050000  	0.050000  	25.000000 	OUTLET    
SUB-940         	0.100000  	0.001000  	0.050000  	0.050000  	25.000000 	OUTLET    

[INFILTRATION]
;;Subcatchment  	CurveNum  	HydCon    	DryTime   
;;--------------	----------	----------	----------
SUB-1006        	74.330000 	0.153000  	75.000000 
SUB-1044        	91.150000 	0.018000  	75.000000 
SUB-542         	80.130000 	0.020300  	75.000000 
SUB-548         	80.520000 	0.021200  	75.000000 
SUB-552         	80.000000 	0.020000  	75.000000 
SUB-576         	88.860000 	0.029200  	75.000000 
SUB-582         	85.250000 	0.017000  	75.000000 
SUB-600         	78.460000 	0.168000  	75.000000 
SUB-602         	91.780000 	0.142000  	75.000000 
SUB-608         	94.868687 	0.046061  	75.000000 
SUB-612         	79.090000 	0.092600  	75.000000 
SUB-618         	90.565657 	0.153535  	75.000000 
SUB-620         	86.430000 	0.178000  	75.000000 
SUB-636         	94.870000 	0.027800  	75.000000 
SUB-638         	91.443299 	0.037113  	75.000000 
SUB-640         	86.202020 	0.032525  	75.000000 
SUB-650         	91.050000 	0.150000  	75.000000 
SUB-660         	94.520000 	0.116000  	75.000000 
SUB-668         	81.150538 	0.104301  	75.000000 
SUB-682         	86.100000 	0.138000  	75.000000 
SUB-684         	89.820000 	0.156000  	75.000000 
SUB-686         	85.485149 	0.146535  	75.000000 
SUB-690         	90.100000 	0.108400  	75.000000 
SUB-694         	84.534653 	0.081584  	75.000000 
SUB-706         	86.900000 	0.099800  	75.000000 
SUB-718         	95.190000 	0.012400  	75.000000 
SUB-722         	88.000000 	0.072800  	75.000000 
SUB-726         	86.570000 	0.091000  	75.000000 
SUB-740         	93.610000 	0.144000  	75.000000 
SUB-766         	94.820000 	0.037400  	75.000000 
SUB-770         	93.720000 	0.122000  	75.000000 
SUB-780         	89.960000 	0.054100  	75.000000 
SUB-874         	86.000000 	0.160000  	75.000000 
SUB-876         	79.600000 	0.160000  	75.000000 
SUB-884         	82.800000 	0.120000  	75.000000 
SUB-926         	87.000000 	0.060000  	75.000000 
SUB-932         	83.000000 	0.020000  	75.000000 
SUB-934         	80.000000 	0.020000  	75.000000 
SUB-938         	93.970000 	0.022800  	75.000000 
SUB-940         	92.900000 	0.031000  	75.000000 

[JUNCTIONS]
;;Junction      	Invert    	Dmax      	Dinit     	Dsurch    	Aponded   
;;--------------	----------	----------	----------	----------	----------
; New Junction
JCT-1006        	4445.756000	7.214000  	0.000000  	0.000000  	0.000000  
JCT-1008        	4449.630000	4.000000  	0.000000  	0.000000  	0.000000  
JCT-1014        	4443.396000	4.000000  	0.000000  	0.000000  	0.000000  
; New Junction
JCT-1018        	4446.000000	6.317000  	0.000000  	0.000000  	0.000000  
JCT-1094        	4498.750000	5.077000  	0.000000  	0.000000  	0.000000  
JCT-1096        	4489.600000	12.590000 	0.000000  	0.000000  	0.000000  
JCT-1160        	4519.000000	5.000000  	0.000000  	0.000000  	0.000000  
JCT-1208        	4489.032000	5.000000  	0.000000  	0.000000  	0.000000  
JCT-1210        	4487.367000	5.000000  	0.000000  	0.000000  	0.000000  
JCT-1212        	4484.178000	7.000000  	0.000000  	0.000000  	0.000000  
JCT-1214        	4481.548000	5.000000  	0.000000  	0.000000  	0.000000  
JCT-1216        	4477.350000	5.000000  	0.000000  	0.000000  	0.000000  
JCT-1218        	4511.950200	4.999995  	0.000000  	0.000000  	0.000000  
JCT-1220        	4509.730000	5.000000  	0.000000  	0.000000  	0.000000  
JCT-1222        	4506.980000	6.680000  	0.000000  	0.000000  	0.000000  
JCT-1224        	4505.310000	6.000000  	0.000000  	0.000000  	0.000000  
JCT-1226        	4500.710000	5.000000  	0.000000  	0.000000  	0.000000  
JCT-1228        	4499.310000	5.000000  	0.000000  	0.000000  	0.000000  
JCT-1230        	4496.455000	4.545000  	0.000000  	0.000000  	0.000000  
; New Junction
JCT-1252        	4502.710000	5.000000  	0.000000  	0.000000  	0.000000  
; New Junction
JCT-1256        	4504.210000	5.000000  	0.000000  	0.000000  	0.000000  
; New Junction
JCT-1258        	4510.000000	4.000000  	0.000000  	0.000000  	0.000000  
; New Junction
JCT-1260        	4493.376000	5.000000  	0.000000  	0.000000  	0.000000  
; New Junction
JCT-1264        	4491.597000	5.000000  	0.000000  	0.000000  	0.000000  
; New Junction
JCT-1266        	4489.950000	5.000000  	0.000000  	0.000000  	0.000000  
; New Junction
JCT-1268        	4517.540000	4.000000  	0.000000  	0.000000  	0.000000  
; New Junction
JCT-1276        	4459.300000	6.000000  	0.000000  	0.000000  	0.000000  
JCT-154         	4457.398000	3.025000  	0.000000  	0.000000  	0.000000  
JCT-160         	4447.189000	5.634000  	0.000000  	0.000000  	0.000000  
JCT-162         	4447.555000	4.949000  	0.000000  	0.000000  	0.000000  
JCT-164         	4451.310000	5.690000  	0.000000  	0.000000  	0.000000  
JCT-166         	4450.524000	6.476000  	0.000000  	0.000000  	0.000000  
JCT-172         	4443.192000	5.508000  	0.000000  	0.000000  	0.000000  
JCT-174         	4443.118900	5.550100  	0.000000  	0.000000  	0.000000  
JCT-176         	4437.685000	3.610000  	0.000000  	0.000000  	0.000000  
JCT-178         	4437.581300	3.713700  	0.000000  	0.000000  	0.000000  
JCT-180         	4432.800000	4.062000  	0.000000  	0.000000  	0.000000  
JCT-182         	4431.877000	4.985000  	0.000000  	0.000000  	0.000000  
JCT-184         	4428.588000	7.272000  	0.000000  	0.000000  	0.000000  
JCT-186         	4428.000000	7.860000  	0.000000  	0.000000  	0.000000  
JCT-188         	4421.767000	6.315000  	0.000000  	0.000000  	0.000000  
JCT-190         	4419.500000	8.600000  	0.000000  	0.000000  	0.000000  
JCT-196         	4412.685000	4.041000  	0.000000  	0.000000  	0.000000  
JCT-534         	4453.689000	4.516000  	0.000000  	0.000000  	0.000000  
JCT-536         	4453.588000	4.508000  	0.000000  	0.000000  	0.000000  
; New Junction
JCT-552         	4538.540000	4.000527  	0.000000  	0.000000  	0.000000  
; New Junction
JCT-554         	4534.280000	3.995879  	0.000000  	0.000000  	0.000000  
; New Junction
JCT-556         	4510.280000	9.950000  	0.000000  	0.000000  	0.000000  
; New Junction
JCT-572         	4435.592000	5.115000  	0.000000  	0.000000  	0.000000  
; New Junction
JCT-574         	4433.834000	4.828000  	0.000000  	0.000000  	0.000000  
; New Junction
JCT-576         	4431.250000	5.626000  	0.000000  	0.000000  	0.000000  
; New Junction
JCT-578         	4429.870000	4.059000  	0.000000  	0.000000  	0.000000  
JCT-598         	4507.650000	8.972559  	0.000000  	0.000000  	0.000000  
JCT-600         	4506.370000	6.315059  	0.000000  	0.000000  	0.000000  
JCT-602         	4501.139600	4.000048  	0.000000  	0.000000  	0.000000  
JCT-622         	4535.500000	10.321289 	0.000000  	0.000000  	0.000000  
JCT-624         	4531.650000	4.000879  	0.000000  	0.000000  	0.000000  
JCT-628         	4512.050000	9.165332  	0.000000  	0.000000  	0.000000  
JCT-658         	4527.057600	4.000017  	0.000000  	0.000000  	0.000000  
; New Junction
JCT-680         	4533.298000	15.476414 	0.000000  	0.000000  	0.000000  
JCT-692         	4510.000000	4.000000  	0.000000  	0.000000  	0.000000  
JCT-724         	4537.560000	4.000000  	0.000000  	0.000000  	0.000000  
JCT-726         	4521.810000	4.000000  	0.000000  	0.000000  	0.000000  
JCT-738         	4523.450000	3.998730  	0.000000  	0.000000  	0.000000  
JCT-740         	4518.200000	3.999707  	0.000000  	0.000000  	0.000000  
JCT-750         	4514.260000	4.002695  	0.000000  	0.000000  	0.000000  
JCT-752         	4519.180000	4.004082  	0.000000  	0.000000  	0.000000  
JCT-758         	4530.670000	3.996992  	0.000000  	0.000000  	0.000000  
JCT-772         	4536.240000	4.004141  	0.000000  	0.000000  	0.000000  
JCT-778         	4539.200000	3.997266  	0.000000  	0.000000  	0.000000  
JCT-844         	4503.440000	4.000000  	0.000000  	0.000000  	0.000000  
JCT-910         	4466.690400	4.000030  	0.000000  	0.000000  	0.000000  
JCT-912         	4465.378400	4.000018  	0.000000  	0.000000  	0.000000  
JCT-914         	4461.440900	4.000018  	0.000000  	0.000000  	0.000000  
; New Junction
JCT-920         	4459.150000	6.290000  	0.000000  	0.000000  	0.000000  
JCT-962         	4507.000000	3.000000  	0.000000  	0.000000  	0.000000  
; New Junction
JCT-992         	4443.470000	4.910000  	0.000000  	0.000000  	0.000000  
JCT-956         	4495.720000	10.730000 	0         	0         	0         
JCT-958         	4494.609000	13.811400 	0         	0         	0         

[OUTFALLS]
;;Outfall       	Invert    	Type      	Stage Data      	Gated   
;;--------------	----------	----------	----------------	--------
OFALL-114       	4430.000000	FREE      	                	NO
; New Outfall
OFALL-14        	4412.346000	NORMAL    	                	NO
; New Junction
JCT-1028        	4491.300000	FIXED     	4495.300000     	NO
JCT-606         	4487.290000	FIXED     	4494.64         	NO

[STORAGE]
;;Storage Node  	Invert  	Dmax    	Dinit    	Curve     	Name/Params                 	Aponded 	Fevap   	SeepRate
;;--------------	--------	--------	---------	----------	----------------------------	--------	--------	--------
; Future Storage
STOR-14         	4529.600000	2.000000	0.000000 	FUNCTIONAL	5566.299191  1.000000  206667.401600	0.000000	0.000000	0       
; Future Storage
STOR-16         	4513.000000	4.500000	0.000000 	FUNCTIONAL	3665.058132  1.000000  83695.238500	0.000000	0.000000	0       
; Proposed Storage
STOR-60         	4453.000000	5.000000	0.000000 	FUNCTIONAL	8632.976474  1.000000  534005.117500	0.000000	0.000000	0       
; Proposed Storage
STOR-64         	4470.500000	5.000000	0.000000 	FUNCTIONAL	3590.530973  1.000000  80057.345130	0.000000	0.000000	0       
; New Storage
STOR-72         	4443.500000	5.000000	0.000000 	FUNCTIONAL	5366.647780  1.000000  190966.761100	0.000000	0.000000	0       
; New Storage
STOR-98         	4489.708000	5.000000	0.000000 	FUNCTIONAL	5366.647780  1.000000  190966.761100	0.000000	0.000000	0       

[CONDUITS]
;;Conduit       	From Node       	To Node         	Length    	Roughness 	InOffset  	OutOffset 	InitFlow  	MaxFlow   
;;--------------	----------------	----------------	----------	----------	----------	----------	----------	----------
CDT-101         	JCT-164         	JCT-166         	103.231522	0.025000  	0.000000  	0.000000  	0.000000  	0.000000  
CDT-1029        	JCT-692         	JCT-1258        	354.527038	0.013000  	0.000000  	0.000000  	0.000000  	0.000000  
CDT-1041        	JCT-726         	JCT-962         	1307.456929	0.013000  	0.000000  	0.000000  	0.000000  	0.000000  
CDT-105         	JCT-172         	JCT-174         	14.608341 	0.013000  	0.000000  	0.000000  	0.000000  	0.000000  
; Splitted conduit
CDT-1069        	JCT-992         	JCT-172         	277.585936	0.013000  	0.000000  	0.000000  	0.000000  	0.000000  
CDT-107         	JCT-176         	JCT-178         	20.747131 	0.013000  	0.000000  	0.000000  	0.000000  	0.000000  
; Splitted conduit
CDT-1083        	JCT-1006        	JCT-992         	1266.359822	0.013000  	0.000000  	0.000000  	0.000000  	0.000000  
CDT-1085        	JCT-1008        	JCT-1018        	1841.317846	0.013000  	0.000000  	0.000000  	0.000000  	0.000000  
CDT-109         	JCT-180         	JCT-182         	24.103011 	0.013000  	0.000000  	0.000000  	0.000000  	0.000000  
CDT-1093        	JCT-1014        	OFALL-114       	2215.191039	0.013000  	0.000000  	0.000000  	0.000000  	0.000000  
CDT-111         	JCT-184         	JCT-186         	58.773845 	0.013000  	0.000000  	0.000000  	0.000000  	0.000000  
CDT-113         	JCT-188         	JCT-190         	41.314101 	0.013000  	0.000000  	0.000000  	0.000000  	0.000000  
CDT-117         	JCT-196         	OFALL-14        	60.385038 	0.013000  	0.000000  	0.000000  	0.000000  	0.000000  
CDT-1221        	JCT-602         	JCT-1094        	569.138753	0.013000  	0.000000  	0.000000  	0.000000  	0.000000  
CDT-1223        	JCT-1094        	STOR-98         	213.926839	0.013000  	0.000000  	0.000000  	0.000000  	0.000000  
; New Conduit
CDT-1307        	JCT-920         	JCT-154         	100.095813	0.035000  	0.000000  	0.000000  	0.000000  	0.000000  
; New Conduit
CDT-1309        	JCT-1018        	JCT-1006        	136.237255	0.013000  	0.000000  	0.000000  	0.000000  	0.000000  
CDT-1339        	JCT-1160        	JCT-844         	1394.141722	0.013000  	0.000000  	0.000000  	0.000000  	0.000000  
CDT-1405        	JCT-1208        	JCT-1210        	540.481871	0.013000  	0.000000  	0.000000  	0.000000  	0.000000  
CDT-1407        	JCT-1210        	JCT-1212        	1886.952612	0.013000  	0.000000  	0.000000  	0.000000  	0.000000  
CDT-1409        	JCT-1212        	JCT-1214        	1314.900226	0.010000  	0.000000  	0.000000  	0.000000  	0.000000  
CDT-1411        	JCT-1214        	JCT-1216        	2096.834955	0.013000  	0.000000  	0.000000  	0.000000  	0.000000  
CDT-1415        	JCT-1218        	JCT-1220        	1113.731962	0.013000  	0.000000  	0.000000  	0.000000  	0.000000  
CDT-1417        	JCT-1220        	JCT-1222        	1369.643676	0.013000  	0.000000  	0.000000  	0.000000  	0.000000  
CDT-1419        	JCT-1222        	JCT-1224        	833.889779	0.013000  	0.000000  	0.000000  	0.000000  	0.000000  
CDT-1421        	JCT-1224        	JCT-1256        	552.680078	0.010000  	0.000000  	0.000000  	0.000000  	0.000000  
CDT-1423        	JCT-1226        	JCT-1228        	698.774718	0.013000  	0.000000  	0.000000  	0.000000  	0.000000  
CDT-1425        	JCT-1228        	JCT-1230        	1428.670052	0.013000  	0.000000  	0.000000  	0.000000  	0.000000  
CDT-1427        	JCT-1230        	JCT-1260        	1539.303329	0.013000  	0.000000  	0.000000  	0.000000  	0.000000  
; Splitted conduit
CDT-1461        	JCT-1252        	JCT-1226        	873.184762	0.013000  	0.000000  	0.000000  	0.000000  	0.000000  
; Splitted conduit
CDT-1463        	JCT-1256        	JCT-1252        	876.298249	0.013000  	0.000000  	0.000000  	0.000000  	0.000000  
; New Conduit
CDT-1467        	JCT-1258        	JCT-1230        	60.937951 	0.013000  	0.000000  	0.000000  	0.000000  	0.000000  
; Splitted conduit
CDT-1469        	JCT-1260        	JCT-1264        	889.519590	0.013000  	0.000000  	0.000000  	0.000000  	0.000000  
; New Conduit
CDT-1471        	JCT-962         	JCT-1260        	129.481412	0.013000  	0.000000  	0.000000  	0.000000  	0.000000  
; Splitted conduit
CDT-1473        	JCT-1264        	JCT-1266        	822.004467	0.013000  	0.000000  	0.000000  	0.000000  	0.000000  
; Splitted conduit
CDT-1475        	JCT-1266        	JCT-1208        	460.394011	0.013000  	0.000000  	0.000000  	0.000000  	0.000000  
; New Conduit
CDT-1479        	JCT-844         	JCT-1266        	415.818946	0.013000  	0.000000  	0.000000  	0.000000  	0.000000  
; New Conduit
CDT-1481        	JCT-740         	JCT-1228        	532.238186	0.013000  	0.000000  	0.000000  	0.000000  	0.000000  
; New Conduit
CDT-1485        	JCT-1268        	JCT-1224        	227.199463	0.013000  	0.000000  	0.000000  	0.000000  	0.000000  
CDT-1495        	JCT-750         	JCT-1252        	507.034473	0.013000  	0.000000  	0.000000  	0.000000  	0.000000  
; New Conduit
CDT-1511        	JCT-680         	STOR-14         	866.486903	0.013000  	0.000000  	0.000000  	0.000000  	0.000000  
CDT-1515        	JCT-1216        	JCT-1276        	2719.057870	0.013000  	0.000000  	0.000000  	0.000000  	0.000000  
; New Conduit
CDT-1525        	JCT-1276        	STOR-60         	88.598913 	0.013000  	0.000000  	0.000000  	0.000000  	0.000000  
; New Conduit
CDT-1543        	JCT-1266        	STOR-98         	241.882879	0.013000  	0.000000  	0.000000  	0.000000  	0.000000  
; New Conduit
CDT-1545        	JCT-536         	STOR-60         	149.190493	0.013000  	0.000000  	0.000000  	0.000000  	0.000000  
; New Conduit
CDT-1549        	JCT-992         	STOR-72         	82.974665 	0.013000  	0.000000  	0.000000  	0.000000  	0.000000  
CDT-299         	JCT-534         	JCT-536         	40.496465 	0.013000  	0.000000  	0.000000  	0.000000  	0.000000  
; New Conduit
CDT-405         	JCT-154         	JCT-534         	663.494808	0.035000  	0.000000  	0.000000  	0.000000  	0.000000  
; New Conduit
CDT-411         	JCT-166         	JCT-160         	1055.121872	0.035000  	0.000000  	0.000000  	0.000000  	0.000000  
; New Conduit
CDT-415         	JCT-162         	JCT-1006        	255.366617	0.035000  	0.000000  	0.000000  	0.000000  	0.000000  
; New Conduit
CDT-417         	JCT-174         	JCT-176         	1599.368659	0.035000  	0.000000  	0.000000  	0.000000  	0.000000  
; New Conduit
CDT-425         	JCT-186         	JCT-188         	6975.962447	0.035000  	0.000000  	0.000000  	0.000000  	0.000000  
; New Conduit
CDT-429         	JCT-178         	JCT-572         	998.190266	0.035000  	0.000000  	0.000000  	0.000000  	0.000000  
; New Conduit
CDT-431         	JCT-182         	JCT-576         	624.043879	0.035000  	0.000000  	0.000000  	0.000000  	0.000000  
; New Conduit
CDT-435         	JCT-190         	JCT-196         	6563.463739	0.035000  	0.000000  	0.000000  	0.000000  	0.000000  
; New Conduit
CDT-463         	JCT-552         	JCT-554         	338.545987	0.013000  	0.000000  	0.000000  	0.000000  	0.000000  
; New Conduit
CDT-465         	JCT-554         	JCT-556         	1175.905960	0.013000  	0.000000  	0.000000  	0.000000  	0.000000  
; Splitted conduit
CDT-485         	JCT-572         	JCT-574         	536.268088	0.035000  	0.000000  	0.000000  	0.000000  	0.000000  
; Splitted conduit
CDT-487         	JCT-574         	JCT-180         	769.494141	0.035000  	0.000000  	0.000000  	0.000000  	0.000000  
; Splitted conduit
CDT-489         	JCT-576         	JCT-578         	1381.728866	0.035000  	0.000000  	0.000000  	0.000000  	0.000000  
; Splitted conduit
CDT-491         	JCT-578         	JCT-184         	281.116346	0.035000  	0.000000  	0.000000  	0.000000  	0.000000  
CDT-525         	JCT-556         	JCT-598         	461.842074	0.013000  	0.000000  	0.000000  	0.000000  	0.000000  
CDT-527         	JCT-598         	JCT-600         	256.972019	0.013000  	0.000000  	0.000000  	0.000000  	0.000000  
CDT-529         	JCT-600         	JCT-602         	612.418944	0.013000  	0.000000  	0.000000  	0.000000  	0.000000  
CDT-551         	JCT-622         	JCT-624         	240.367373	0.013000  	0.000000  	0.000000  	0.000000  	0.000000  
CDT-557         	JCT-628         	JCT-556         	342.406903	0.013000  	0.000000  	0.000000  	0.000000  	0.000000  
CDT-623         	JCT-658         	STOR-16         	1056.446882	0.013000  	0.000000  	0.000000  	0.000000  	0.000000  
CDT-675         	JCT-724         	JCT-622         	999.695430	0.013000  	0.000000  	0.000000  	0.000000  	0.000000  
CDT-677         	JCT-624         	JCT-726         	1199.185014	0.013000  	0.000000  	0.000000  	0.000000  	0.000000  
CDT-701         	JCT-738         	JCT-740         	707.167651	0.013000  	0.000000  	0.000000  	0.000000  	0.000000  
CDT-715         	JCT-752         	JCT-750         	667.429822	0.013000  	0.000000  	0.000000  	0.000000  	0.000000  
CDT-719         	JCT-758         	JCT-1268        	2489.090239	0.013000  	0.000000  	0.000000  	0.000000  	0.000000  